LTspice 26.0.2 for Windows
Circuit: \\wsl.localhost\Ubuntu-22.04\home\chief\projects\XPhase\ltspice\xphase_40m_topology_b.cir
Start Time: Sun Jun 21 12:12:17 2026
solver = Normal
Maximum thread count: 8
tnom = 27
temp = 27
method = trap
.OP point found by inspection.
.OP point found by inspection.
Total elapsed time: 0.103 seconds.

Files loaded:
\\wsl.localhost\Ubuntu-22.04\home\chief\projects\XPhase\ltspice\xphase_40m_topology_b.cir

Warning: Failed to open \\wsl.localhost\Ubuntu-22.04\home\chief\projects\XPhase\ltspice\xphase_40m_topology_b.db database.